138

C   2.06211   11.59734  12.45422 
C   3.11987   12.46000  12.79155 
C   4.04284   13.18457  13.08589 
C   5.13305   14.00810  13.43281 
C   6.37195   13.42815  13.73226 
C   7.44565   14.23026  14.07418 
C   7.30655   15.60572  14.12125 
C   6.07164   16.19422  13.82270 
C   5.93453   17.59632  13.87136 
C   5.83142   18.80089  13.91446 
C   5.73126   20.20215  13.97205 
C   6.84634   21.00896  14.24531 
C   6.68685   22.38074  14.29054 
C   5.43069   22.92701  14.06628 
N   4.36855   22.16173  13.80594 
C   4.50482   20.83892  13.75758 
C   4.98363   15.39324  13.47916 
C   2.24897   10.20982  12.35870 
C   1.17303   9.40924   12.02647 
C   -0.06435  9.99446   11.79595 
N   -0.24443  11.31387  11.88536 
C   0.78139   12.09954  12.20365 
H   6.47990   12.35543  13.69423 
H   8.39807   13.78008  14.30524 
H   8.14355   16.23196  14.38767 
H   7.80979   20.55453  14.41560 
H   7.52494   23.02639  14.49749 
H   5.26901   24.00274  14.09512 
H   3.61113   20.25328  13.54206 
H   4.02931   15.84458  13.24721 
H   3.22305   9.78491   12.54407 
H   1.28588   8.34022   11.94583 
H   -0.93312  9.39430   11.53300 
H   0.58851   13.17058  12.26543 
C   -0.69334  13.59965  7.81647  
C   -0.06314  14.78120  7.38799  
C   0.48259   15.78773  6.99747  
C   1.11395   16.95413  6.51996  
C   1.43950   17.05886  5.16208  
C   2.05982   18.19988  4.68625  
C   2.36164   19.24314  5.54293  
C   2.03974   19.14709  6.90224  
C   2.34913   20.21267  7.77161  
C   2.62165   21.13427  8.50640  
C   2.94430   22.21650  9.34396  
C   3.52938   23.38818  8.84022  
C   3.82432   24.41895  9.71187  
C   3.53547   24.27189  11.06151 
N   2.97907   23.15835  11.54313 
C   2.68893   22.15588  10.71755 
C   1.41546   18.00020  7.39057  
C   -1.02317  12.57606  6.91493  
C   -1.64294  11.43664  7.39089  
C   -1.92453  11.33145  8.74603  
N   -1.61195  12.30358  9.60545  
C   -1.01425  13.40754  9.16379  
H   1.20348   16.24489  4.49458  
H   2.30963   18.27675  3.63990  
H   2.84509   20.13357  5.17246  
H   3.74169   23.47259  7.78592  
H   4.27397   25.33114  9.35444  
H   3.75375   25.06346  11.77562 
H   2.23712   21.26527  11.15429 
H   1.16529   17.92322  8.43921  
H   -0.79199  12.68793  5.86722  
H   -1.90840  10.63369  6.72242  
H   -2.41198  10.44869  9.15503  
H   -0.77662  14.17461  9.90084  
C   -5.19483  14.91655  11.04522 
C   -5.29123  16.31795  11.10494 
C   -5.39172  17.52272  11.14760 
C   -5.53292  18.92452  11.19545 
C   -6.76692  19.50837  10.88405 
C   -6.91188  20.88318  10.92982 
C   -5.84503  21.68945  11.28335 
C   -4.60714  21.11433  11.59546 
C   -3.52280  21.94121  11.95264 
C   -2.60143  22.66145  12.26196 
C   -1.54441  23.52040  12.61116 
C   -1.73163  24.90622  12.72742 
C   -0.65590  25.70193  13.07208 
C   0.58167   25.11368  13.29351 
N   0.76230   23.79580  13.18377 
C   -0.26339  23.01478  12.85389 
C   -4.45172  19.72969  11.55036 
C   -6.30927  14.11492  10.75453 
C   -6.15460  12.74271  10.70727 
C   -4.90370  12.19071  10.94681 
N   -3.84240  12.95099  11.22430 
C   -3.97416  14.27426  11.27481 
H   -7.59861  18.87877  10.60903 
H   -7.86359  21.32955  10.68878 
H   -5.95762  22.76173  11.32018 
H   -2.70572  25.33380  12.54831 
H   -0.76909  26.76953  13.16945 
H   1.45026   25.71005  13.56575 
H   -0.07028  21.94494  12.77568 
H   -3.49794  19.28232  11.79195 
H   -7.26847  14.57378  10.57276 
H   -6.99238  12.10109  10.48695 
H   -4.74569  11.11456  10.91620 
H   -3.08132  14.85568  11.50493 
C   -2.45444  12.91930  15.69658 
C   -2.13152  14.00402  16.53078 
C   -1.86252  14.92788  17.26392 
C   -1.55732  15.99263  18.13580 
C   -1.89891  15.89921  19.49051 
C   -1.60283  16.94086  20.35102 
C   -0.96844  18.07777  19.88375 
C   -0.62291  18.17969  18.53069 
C   0.02492   19.33977  18.05997 
C   0.57906   20.34175  17.66956 
C   1.22534   21.51458  17.24101 
C   1.57569   22.53168  18.14211 
C   2.20907   23.66275  17.66391 
C   2.48300   23.76630  16.30708 
N   2.15071   22.80031  15.44798 
C   1.54052   21.70422  15.89183 
C   -0.91909  17.13532  17.65609 
C   -3.05536  11.75658  16.20265 
C   -3.35138  10.72248  15.33541 
C   -3.04808  10.85739  13.98761 
N   -2.47624  11.96210  13.50393 
C   -2.18466  12.96764  14.32538 
H   -2.39301  15.01186  19.85418 
H   -1.86798  16.86580  21.39369 
H   -0.73674  18.89033  20.55442 
H   1.34921   22.42181  19.19110 
H   2.49056   24.46070  18.33189 
H   2.98060   24.64266  15.89630 
H   1.28708   20.94192  15.15519 
H   -0.65315  17.21045  16.61121 
H   -3.27864  11.68168  17.25541 
H   -3.81312  9.81714   15.69479 
H   -3.26723  10.06311  13.27692 
H   -1.71938  13.85054  13.88697 
Pd  -2.04714  12.12337  11.55320 
Pd  2.56863   22.98650  13.49708 
